<?xml version="1.0" encoding="UTF-8"?>

<!-- generated on 2023-12-17 15:05:10 by Eclipse SUMO polyconvert Version 1.19.0
<configuration xmlns:xsi="http://www.w3.org/2001/XMLSchema-instance" xsi:noNamespaceSchemaLocation="http://sumo.dlr.de/xsd/polyconvertConfiguration.xsd">

    <input>
        <net-file value="osm.net.xml.gz"/>
        <osm-files value="osm_bbox.osm.xml.gz"/>
        <osm.keep-full-type value="true"/>
        <type-file value="${SUMO_HOME}/data/typemap/osmPolyconvert.typ.xml"/>
    </input>

    <output>
        <output-file value="osm.poly.xml.gz"/>
    </output>

    <report>
        <verbose value="true"/>
    </report>

</configuration>
-->

<additional xmlns:xsi="http://www.w3.org/2001/XMLSchema-instance" xsi:noNamespaceSchemaLocation="http://sumo.dlr.de/xsd/additional_file.xsd">
    <location netOffset="-322283.64,-4146568.89" convBoundary="-0.00,0.00,12274.93,8859.18" origBoundary="126.989877,37.449954,127.128313,37.529351" projParameter="+proj=utm +zone=52 +ellps=WGS84 +datum=WGS84 +units=m +no_defs"/>

    <poly id="1012627877" type="amenity.restaurant" color="237,199,199" fill="1" layer="-1.00" shape="4930.993321,6114.509104 4946.979407,6110.102948 4939.040802,6095.348495 4926.836276,6098.310688 4930.993321,6114.509104"/>
    <poly id="1012627877#1" type="building.yes" color="255,230,230" fill="1" layer="-1.00" shape="4930.993321,6114.509104 4946.979407,6110.102948 4939.040802,6095.348495 4926.836276,6098.310688 4930.993321,6114.509104"/>
    <poly id="1031886529" type="building.apartments" color="255,230,230" fill="1" layer="-1.00" shape="2865.692877,4664.679963 2888.759640,4670.067526 2906.047398,4603.753922 2885.244969,4596.686887 2865.692877,4664.679963"/>
    <poly id="1042249040" type="amenity.parking" color="184,184,179" fill="1" layer="-1.00" shape="2921.385908,5196.018763 2967.598379,5070.506931 2973.131270,5072.422152 2929.983551,5189.732596 2989.333894,5211.730828 2988.439693,5214.635841 3016.911203,5225.183050 3015.039227,5229.962445 2921.385908,5196.018763"/>
    <poly id="1042249041" type="amenity.parking" color="184,184,179" fill="1" layer="-1.00" shape="2964.948048,5111.491556 2971.988305,5091.273255 2987.181904,5096.659920 2979.892888,5116.406095 2964.948048,5111.491556"/>
    <poly id="1042249042" type="amenity.parking" color="184,184,179" fill="1" layer="-1.00" shape="2913.556195,5042.724692 2918.545409,5044.862221 2906.077857,5080.391743 2900.643602,5078.541098 2913.556195,5042.724692"/>
    <poly id="1042249043" type="amenity.parking" color="184,184,179" fill="1" layer="-1.00" shape="2919.082741,5057.383825 2921.352901,5050.087242 2944.822841,5058.718986 2943.545480,5062.331410 2941.196311,5061.659214 2940.085727,5064.368964 2919.082741,5057.383825"/>
    <poly id="1042249044" type="amenity.parking" color="184,184,179" fill="1" layer="-1.00" shape="2915.862812,5038.846413 2924.235941,5013.871085 2970.599845,5029.814658 2965.827339,5046.832662 2957.111945,5051.311811 2951.093303,5050.694508 2947.060623,5055.352803 2922.528360,5046.676771 2923.369515,5043.772866 2915.157732,5041.070307 2915.862812,5038.846413"/>
    <poly id="1042249050" type="amenity.parking" color="184,184,179" fill="1" layer="-1.00" shape="2939.414126,5102.281485 2952.962775,5063.054912 2959.399300,5064.618111 2945.045654,5104.261219 2939.414126,5102.281485"/>
    <poly id="1042249051" type="building.yes" color="255,230,230" fill="1" layer="-1.00" shape="2935.207067,5133.996302 2939.590659,5121.626612 2904.623103,5109.650945 2890.152879,5146.676810 2925.894146,5159.280002 2931.004213,5145.285411 2909.116841,5137.874857 2913.419253,5126.694652 2935.207067,5133.996302"/>
    <poly id="1042249052" type="amenity.parking" color="184,184,179" fill="1" layer="-1.00" shape="2876.925615,5139.739269 2889.144232,5144.977374 2903.634744,5108.916857 2889.793766,5103.501912 2876.925615,5139.739269"/>
    <poly id="1042249053" type="building.house" color="255,230,230" fill="1" layer="-1.00" shape="3008.799504,4892.882208 3011.695596,4883.796372 3021.534744,4886.908890 3018.638642,4895.994722 3008.799504,4892.882208"/>
    <poly id="1042249054" type="building.house" color="255,230,230" fill="1" layer="-1.00" shape="3012.684509,4879.923600 3016.008221,4870.140531 3026.430680,4873.651537 3023.106958,4883.434601 3012.684509,4879.923600"/>
    <poly id="1042249055" type="building.house" color="255,230,230" fill="1" layer="-1.00" shape="2993.091671,4889.138115 2996.112689,4880.105153 3005.376008,4883.174244 3002.354981,4892.207201 2993.091671,4889.138115"/>
    <poly id="1042249056" type="building.house" color="255,230,230" fill="1" layer="-1.00" shape="2995.915016,4876.168495 2999.845225,4865.362501 3010.041090,4869.033659 3006.110870,4879.839648 2995.915016,4876.168495"/>
    <poly id="1042249057" type="building.house" color="255,230,230" fill="1" layer="-1.00" shape="3017.559054,4867.332743 3021.332485,4856.641062 3032.025319,4860.390617 3028.243036,4871.082478 3017.559054,4867.332743"/>
    <poly id="1042249058" type="building.house" color="255,230,230" fill="1" layer="-1.00" shape="3004.643220,4852.917555 3014.472400,4855.974772 3011.653533,4864.947975 3001.833203,4861.890576 3004.643220,4852.917555"/>
    <poly id="1042249059" type="building.house" color="255,230,230" fill="1" layer="-1.00" shape="3007.412724,4849.595731 3011.020936,4838.197059 3019.541853,4840.871028 3015.933630,4852.269695 3007.412724,4849.595731"/>
    <poly id="1042249060" type="building.house" color="255,230,230" fill="1" layer="-1.00" shape="3021.984784,4854.007557 3025.290124,4843.769744 3035.611164,4847.083078 3032.305813,4857.320886 3021.984784,4854.007557"/>
    <poly id="1043288034" type="leisure.playground" color="207,245,201" fill="1" layer="-2.00" shape="3016.562586,4566.331412 3052.430544,4579.387740 3048.352140,4590.729645 3013.302998,4577.911462 3016.562586,4566.331412"/>
    <poly id="1043288037" type="amenity.parking" color="184,184,179" fill="1" layer="-1.00" shape="3128.644971,4578.254150 3125.454517,4586.813264 3100.734284,4577.663254 3103.933559,4569.103945 3128.644971,4578.254150"/>
    <poly id="1043288046" type="amenity.parking" color="184,184,179" fill="1" layer="-1.00" shape="3076.925313,4957.823725 3013.562158,4935.187512 2993.635898,4990.000331 3049.953252,5009.454064 3039.899535,5035.707835 3048.659197,5038.809742 3057.974705,5012.360567 3076.925313,4957.823725"/>
    <poly id="1043288051" type="building.warehouse" color="255,230,230" fill="1" layer="-1.00" shape="3028.050543,5036.700435 3035.312300,5016.910484 2989.829061,5000.359708 2993.635898,4990.000331 3047.791397,5009.699277 3036.722963,5039.859666 3028.050543,5036.700435"/>
    <poly id="1043288053" type="building.yes" color="255,230,230" fill="1" layer="-1.00" shape="3075.858492,4988.739842 3083.809514,4967.647772 3136.324632,4985.894212 3129.030782,5007.960410 3075.858492,4988.739842"/>
    <poly id="1043288056" type="building.apartments" color="255,230,230" fill="1" layer="-1.00" shape="2844.261196,4518.687656 2867.821121,4503.750212 2889.585417,4535.951586 2886.384397,4537.683987 2845.439457,4523.402963 2844.261196,4518.687656"/>
    <poly id="1043288057" type="amenity.fuel" color="237,199,199" fill="1" layer="-1.00" shape="2894.458589,4543.075848 2922.315802,4551.637610 2913.625340,4579.639001 2885.777049,4571.077084 2894.458589,4543.075848"/>
    <poly id="1043288058" type="amenity.fuel" color="237,199,199" fill="1" layer="-1.00" shape="2897.082683,4553.877360 2899.205488,4546.717090 2920.548720,4552.995742 2918.425899,4560.156006 2910.516611,4557.979912 2899.435028,4554.693796 2897.082683,4553.877360"/>
    <poly id="1043288058#1" type="building.yes" color="255,230,230" fill="1" layer="-1.00" shape="2897.082683,4553.877360 2899.205488,4546.717090 2920.548720,4552.995742 2918.425899,4560.156006 2910.516611,4557.979912 2899.435028,4554.693796 2897.082683,4553.877360"/>
    <poly id="1043288103" type="landuse.residential" color="235,235,227" fill="1" layer="-3.00" shape="2650.785347,4606.579673 2658.185779,4586.253617 2657.854020,4583.518678 2661.696845,4568.151884 2663.271569,4561.857844 2659.679972,4557.637375 2659.390024,4553.946879 2666.575393,4534.746552 2668.808707,4533.267544 2687.703076,4539.597140 2683.302962,4552.022806 2743.222430,4573.496940 2740.760684,4583.039976 2718.711368,4662.197978 2685.699132,4648.672258 2641.071962,4629.640832 2647.298248,4614.889921 2650.785347,4606.579673"/>
    <poly id="1043288104" type="building.apartments" color="255,230,230" fill="1" layer="-1.00" shape="2648.576247,4617.194214 2652.521681,4605.444145 2705.887935,4623.203896 2719.273318,4583.369842 2729.089684,4586.637931 2708.187075,4648.820786 2695.110300,4644.455727 2698.664747,4633.879502 2648.576247,4617.194214"/>
    <poly id="1043288108" type="building.apartments" color="255,230,230" fill="1" layer="-1.00" shape="2751.776278,4594.541928 2756.428901,4581.922276 2819.770377,4605.045607 2815.109301,4617.687598 2751.776278,4594.541928"/>
    <poly id="1043288109" type="landuse.residential" color="235,235,227" fill="1" layer="-3.00" shape="2745.059950,4604.507473 2757.432512,4561.087008 2823.394903,4583.489201 2826.382731,4572.458718 2835.862428,4576.544373 2838.109109,4581.170615 2821.972377,4630.686753 2814.931290,4634.042940 2748.404730,4610.453804 2745.059950,4604.507473"/>
    <poly id="1043288110" type="building.apartments" color="255,230,230" fill="1" layer="-1.00" shape="2850.497170,4737.921059 2859.968667,4708.382336 2873.824446,4712.786775 2864.361749,4742.325295 2850.497170,4737.921059"/>
    <poly id="1043288111" type="building.apartments" color="255,230,230" fill="1" layer="-1.00" shape="2863.044240,4693.531316 2871.411810,4668.278555 2886.989658,4673.390584 2878.622047,4698.643328 2863.044240,4693.531316"/>
    <poly id="1043288113" type="landuse.residential" color="235,235,227" fill="1" layer="-3.00" shape="2863.748259,4665.164872 2910.178414,4676.166934 2883.226647,4763.275779 2838.911979,4750.220158 2863.748259,4665.164872"/>
    <poly id="1043288114" type="building.apartments" color="255,230,230" fill="1" layer="-1.00" shape="2913.648421,4526.853862 2924.016098,4488.582234 2936.149903,4491.846282 2925.781943,4530.106797 2913.648421,4526.853862"/>
    <poly id="1043288116" type="amenity.parking" color="184,184,179" fill="1" layer="-1.00" shape="2914.670071,4482.861839 2920.042633,4480.495478 2931.148728,4437.368373 2925.503227,4440.217797 2914.670071,4482.861839"/>
    <poly id="1043288117" type="building.apartments" color="255,230,230" fill="1" layer="-1.00" shape="2927.609197,4481.091360 2937.852679,4440.691001 2950.666651,4443.907481 2940.432188,4484.318733 2927.609197,4481.091360"/>
    <poly id="1043288118" type="landuse.residential" color="235,235,227" fill="1" layer="-3.00" shape="2911.938525,4483.785102 2957.946194,4496.528093 2971.506415,4451.895285 2966.105301,4444.060513 2930.314665,4433.456188 2924.923454,4435.778529 2911.938525,4483.785102"/>
    <poly id="1043288120" type="landuse.residential" color="235,235,227" fill="1" layer="-3.00" shape="2897.133981,4535.693049 2898.990638,4539.439431 2940.588183,4551.531228 2942.301703,4548.886524 2957.946194,4496.528093 2911.938525,4483.785102 2897.133981,4535.693049"/>
    <poly id="1044094472" type="landuse.forest" color="140,196,107" fill="1" layer="-3.00" shape="3027.841479,4532.680961 3035.952916,4509.098917 3038.346378,4507.661053 3066.049995,4517.336605 3067.056543,4517.670702 3104.208496,4530.789109 3105.538484,4532.626138 3096.029496,4557.902570 3027.841479,4532.680961"/>
    <poly id="1044094473" type="landuse.forest" color="140,196,107" fill="1" layer="-3.00" shape="3011.135034,4587.137407 3013.302998,4577.911462 3048.352140,4590.729645 3052.430544,4579.387740 3082.756359,4590.107264 3076.205518,4608.816525 3075.957988,4610.087220 3011.135034,4587.137407"/>
    <poly id="1044094477" type="amenity.parking" color="184,184,179" fill="1" layer="-1.00" shape="3151.440955,4553.875630 3158.656146,4541.524393 3186.089357,4550.972886 3181.693648,4564.064206 3151.440955,4553.875630"/>
    <poly id="1044094517" type="amenity.parking" color="184,184,179" fill="1" layer="-1.00" shape="2967.011623,4739.857465 2968.665918,4734.816220 3025.783078,4754.785922 3027.852212,4756.019070 3028.989761,4757.538203 3029.446312,4759.482368 3028.945027,4762.989669 3025.651219,4764.091219 3025.140235,4762.503425 3024.259549,4761.001101 3022.602913,4759.193146 2967.011623,4739.857465"/>
    <poly id="1044094518" type="amenity.parking" color="184,184,179" fill="1" layer="-1.00" shape="2972.262011,4728.735106 2973.990539,4723.858816 3044.797264,4748.747404 3043.068468,4753.612582 2972.262011,4728.735106"/>
    <poly id="1044094519" type="amenity.parking" color="184,184,179" fill="1" layer="-1.00" shape="2965.191946,4739.973397 2969.824766,4745.348806 2957.926695,4792.022610 2953.067213,4785.120050 2965.191946,4739.973397"/>
    <poly id="1044094520" type="amenity.parking" color="184,184,179" fill="1" layer="-1.00" shape="2981.886599,4807.104908 2983.691188,4802.060508 2959.335768,4793.413920 2957.522350,4798.458511 2981.886599,4807.104908"/>
    <poly id="1044094521" type="amenity.parking" color="184,184,179" fill="1" layer="-1.00" shape="2995.151411,4811.599657 2997.338466,4805.392736 3033.747089,4818.126751 3031.559779,4824.322566 2995.151411,4811.599657"/>
    <poly id="1044094522" type="amenity.parking" color="184,184,179" fill="1" layer="-1.00" shape="3053.734191,4765.333162 3055.479496,4759.990302 3047.437805,4757.395038 3044.012942,4756.467875 3042.516119,4761.428090 3053.734191,4765.333162"/>
    <poly id="1044181835" type="leisure.pitch" color="207,245,201" fill="1" layer="-2.00" shape="3130.595621,5028.575175 3126.450156,5040.506811 3101.067702,5031.770402 3105.212903,5019.827656 3130.595621,5028.575175"/>
    <poly id="1044181835#1" type="sport.basketball" color="79,230,125" fill="1" layer="-2.00" shape="3130.595621,5028.575175 3126.450156,5040.506811 3101.067702,5031.770402 3105.212903,5019.827656 3130.595621,5028.575175"/>
    <poly id="1044181836" type="leisure.pitch" color="207,245,201" fill="1" layer="-2.00" shape="3069.701098,5018.586152 3076.741420,4996.669527 3085.424787,4999.506655 3078.391200,5021.745056 3069.701098,5018.586152"/>
    <poly id="1044181836#1" type="sport.tennis" color="79,230,125" fill="1" layer="-2.00" shape="3069.701098,5018.586152 3076.741420,4996.669527 3085.424787,4999.506655 3078.391200,5021.745056 3069.701098,5018.586152"/>
    <poly id="1044181837" type="leisure.pitch" color="207,245,201" fill="1" layer="-2.00" shape="3082.640495,5022.765928 3089.680614,5000.838218 3098.355130,5003.675545 3091.321514,5025.913934 3082.640495,5022.765928"/>
    <poly id="1044181837#1" type="sport.tennis" color="79,230,125" fill="1" layer="-2.00" shape="3082.640495,5022.765928 3089.680614,5000.838218 3098.355130,5003.675545 3091.321514,5025.913934 3082.640495,5022.765928"/>
    <poly id="1044253245" type="amenity.parking" color="184,184,179" fill="1" layer="-1.00" shape="3022.945751,4514.367430 3015.719104,4511.843876 3029.620644,4465.339065 3039.302050,4468.499345 3022.945751,4514.367430"/>
    <poly id="1044253257" type="building.yes" color="255,230,230" fill="1" layer="-1.00" shape="2702.905849,4498.270616 2708.582786,4480.101148 2722.890885,4484.540249 2717.213687,4502.698610 2702.905849,4498.270616"/>
    <poly id="1044253258" type="building.yes" color="255,230,230" fill="1" layer="-1.00" shape="2779.645698,4482.958094 2788.960573,4459.006342 2787.450709,4458.294330 2790.351371,4448.586674 2806.112785,4453.572606 2802.704147,4462.680388 2820.100590,4468.864166 2826.219999,4470.467258 2816.710634,4496.532220 2779.645698,4482.958094"/>
    <poly id="1044253259" type="building.yes" color="255,230,230" fill="1" layer="-1.00" shape="2889.869809,4517.074123 2882.656871,4505.103549 2883.598603,4502.352942 2898.329745,4505.884276 2895.478417,4517.944239 2889.869809,4517.074123"/>
    <poly id="1046181851" type="building.yes" color="255,230,230" fill="1" layer="-1.00" shape="3437.080255,4722.969167 3445.169787,4699.987473 3454.427520,4703.212592 3451.380814,4711.890665 3456.468720,4713.671223 3467.320477,4682.783402 3480.534220,4687.379896 3464.506456,4732.973717 3457.396248,4730.502862 3458.556851,4727.214904 3446.536956,4723.026370 3445.527132,4725.911541 3437.080255,4722.969167"/>
    <poly id="1046181852" type="building.yes" color="255,230,230" fill="1" layer="-1.00" shape="3459.542777,4755.279366 3479.309240,4696.885665 3494.497115,4701.984772 3474.712880,4760.378804 3459.542777,4755.279366"/>
    <poly id="1046181853" type="building.yes" color="255,230,230" fill="1" layer="-1.00" shape="3469.645964,4632.070487 3477.357815,4610.051420 3522.718714,4625.786012 3515.382320,4646.731490 3508.682015,4644.407417 3510.643560,4638.815924 3489.063549,4631.330766 3486.735305,4637.995624 3469.645964,4632.070487"/>
    <poly id="1046181854" type="building.yes" color="255,230,230" fill="1" layer="-1.00" shape="3453.468548,4676.435265 3459.251384,4659.451959 3509.600410,4676.436282 3503.300696,4694.928985 3493.457356,4691.616169 3495.914965,4684.371359 3466.473752,4674.453311 3465.365255,4677.695772 3463.512308,4677.068536 3462.670698,4679.539449 3453.468548,4676.435265"/>
    <poly id="1046181856" type="building.yes" color="255,230,230" fill="1" layer="-1.00" shape="3487.067306,4592.186640 3500.239282,4554.234566 3541.258857,4568.350661 3528.086726,4606.302665 3487.067306,4592.186640"/>
    <poly id="1046181859" type="building.yes" color="255,230,230" fill="1" layer="-1.00" shape="3435.141662,4724.164269 3433.868439,4728.409262 3433.041940,4732.445082 3432.855277,4736.201075 3431.167985,4736.303031 3431.391502,4740.638776 3431.870021,4744.902573 3432.450008,4747.676732 3433.836388,4751.788298 3435.218815,4755.711233 3436.236221,4757.832380 3437.456744,4759.938170 3438.874090,4762.572676 3441.046282,4760.706631 3452.698298,4764.225710 3460.217272,4743.986787 3463.846827,4733.997710 3435.141662,4724.164269"/>
    <poly id="1046181866" type="amenity.parking" color="184,184,179" fill="1" layer="-1.00" shape="3408.769475,4738.714985 3410.550602,4733.804395 3397.627951,4729.168612 3395.846598,4734.068109 3408.769475,4738.714985"/>
    <poly id="1046181875" type="amenity.parking" color="184,184,179" fill="1" layer="-1.00" shape="3050.327550,5161.639174 3059.163598,5134.267583 3091.984315,5145.955927 3084.745208,5168.509474 3083.322752,5168.161910 3081.718598,5168.006876 3080.315945,5168.602471 3079.506597,5170.495512 3078.979212,5171.916396 3050.327550,5161.639174"/>
    <poly id="1046181885" type="leisure.pitch" color="207,245,201" fill="1" layer="-2.00" shape="2917.956529,4960.019458 2925.399538,4939.182111 2950.841123,4948.183190 2943.398294,4969.031608 2940.314806,4967.930805 2935.092908,4966.086773 2917.956529,4960.019458"/>
    <poly id="1046181885#1" type="sport.basketball" color="79,230,125" fill="1" layer="-2.00" shape="2917.956529,4960.019458 2925.399538,4939.182111 2950.841123,4948.183190 2943.398294,4969.031608 2940.314806,4967.930805 2935.092908,4966.086773 2917.956529,4960.019458"/>
    <poly id="1046181890" type="building.yes" color="255,230,230" fill="1" layer="-1.00" shape="2954.303516,4996.365962 2957.586879,4987.194258 2978.902716,4994.750174 2975.619333,5003.921869 2954.303516,4996.365962"/>
    <poly id="1046460916" type="amenity.parking" color="184,184,179" fill="1" layer="-1.00" shape="2986.694031,4662.459480 2989.013500,4655.816845 3029.590131,4669.873144 3027.262027,4676.527048 2986.694031,4662.459480"/>
    <poly id="1046460917" type="amenity.parking" color="184,184,179" fill="1" layer="-1.00" shape="3041.111684,4680.221436 3043.130141,4674.406603 3069.591451,4683.497675 3066.080531,4693.639870 3059.959697,4691.537104 3061.461216,4687.220645 3041.111684,4680.221436"/>
    <poly id="1046460918" type="amenity.parking" color="184,184,179" fill="1" layer="-1.00" shape="3054.671286,4704.225420 3062.366825,4707.183189 3058.512768,4718.253964 3061.366823,4724.432727 3068.991611,4727.391987 3066.877074,4733.686168 3058.432844,4730.877326 3050.211379,4715.508735 3054.671286,4704.225420"/>
    <poly id="1046460919" type="landuse.forest" color="140,196,107" fill="1" layer="-3.00" shape="2990.658953,4609.502761 2983.655261,4606.641529 2986.557247,4596.989425 2986.751671,4594.454344 2987.140374,4591.904081 3006.631280,4515.886722 3019.503763,4465.451594 3023.696347,4466.706760 3009.689302,4516.188830 3017.186540,4518.540184 3016.823609,4519.791102 2991.310817,4607.268896 2990.658953,4609.502761"/>
    <poly id="1046460920" type="amenity.parking" color="184,184,179" fill="1" layer="-1.00" shape="3051.120599,4491.296594 3082.784588,4501.699418 3080.688352,4508.026508 3049.024383,4497.623693 3051.120599,4491.296594"/>
    <poly id="1046460921" type="amenity.parking" color="184,184,179" fill="1" layer="-1.00" shape="3100.119183,4514.223653 3101.981842,4508.567523 3129.271667,4517.497107 3124.098713,4533.169071 3118.015709,4531.187572 3121.325749,4521.160635 3100.119183,4514.223653"/>
    <poly id="1046460924" type="building.yes" color="255,230,230" fill="1" layer="-1.00" shape="3160.420520,5130.987449 3168.922217,5106.209516 3194.266443,5114.824809 3185.764682,5139.602714 3160.420520,5130.987449"/>
    <poly id="1046460935" type="landuse.forest" color="140,196,107" fill="1" layer="-3.00" shape="3049.535054,4469.283571 3051.232363,4467.549504 3053.361290,4466.150502 3055.398562,4465.441679 3151.146059,4498.510753 3143.938403,4518.810049 3139.580897,4517.280764 3143.413772,4506.454705 3054.159123,4475.081046 3049.362037,4490.534254 3042.870871,4488.494772 3048.431541,4471.493610 3049.535054,4469.283571"/>
    <poly id="1046781577" type="landuse.forest" color="140,196,107" fill="1" layer="-3.00" shape="3167.537805,4514.584979 3279.122610,4554.649749 3283.043823,4543.810810 3166.067391,4501.838748 3157.080058,4526.693419 3162.454336,4528.623211 3167.537805,4514.584979"/>
    <poly id="1046781578" type="amenity.parking" color="184,184,179" fill="1" layer="-1.00" shape="3112.820646,4544.961762 3120.561676,4547.974140 3114.901308,4563.179005 3127.161746,4567.850471 3126.121764,4570.980537 3109.140176,4564.731933 3107.160289,4560.166632 3112.820646,4544.961762"/>
    <poly id="1046781587" type="amenity.parking" color="184,184,179" fill="1" layer="-1.00" shape="2825.901187,5250.422198 2832.128959,5233.229174 2968.614070,5282.190492 2962.377692,5299.405784 2825.901187,5250.422198"/>
    <poly id="1046781588" type="amenity.parking" color="184,184,179" fill="1" layer="-1.00" shape="2974.380918,5290.617009 2976.912125,5284.380637 3034.314528,5303.789166 3025.809197,5326.258371 2980.024465,5310.435625 2976.806325,5307.550402 2976.421798,5303.140330 2971.155677,5301.286115 2974.380918,5290.617009"/>
    <poly id="1046781589" type="amenity.parking" color="184,184,179" fill="1" layer="-1.00" shape="2835.592694,5311.728463 2837.272151,5307.052976 2942.780634,5344.565239 2941.101361,5349.251799 2835.592694,5311.728463"/>
    <poly id="1046781590" type="amenity.parking" color="184,184,179" fill="1" layer="-1.00" shape="2950.311171,5352.743760 2952.225182,5347.863555 3007.535924,5366.660880 3005.507191,5371.554582 2950.311171,5352.743760"/>
    <poly id="1046781592" type="leisure.playground" color="207,245,201" fill="1" layer="-2.00" shape="2828.802124,5269.765560 2832.656994,5259.183059 2854.608144,5267.113800 2850.753017,5277.685195 2828.802124,5269.765560"/>
    <poly id="1046781593" type="building.yes" color="255,230,230" fill="1" layer="-1.00" shape="2987.116978,5054.833177 2991.766158,5042.469045 3058.082698,5067.207707 3053.424830,5079.583080 2987.116978,5054.833177"/>
    <poly id="1046781595" type="leisure.sports_centre" color="207,245,201" fill="1" layer="-2.00" shape="3062.156118,5022.785292 3083.330177,4965.459863 3148.593711,4988.056701 3128.222432,5046.142154 3062.156118,5022.785292"/>
    <poly id="1050196487" type="building.commercial" color="255,230,230" fill="1" layer="-1.00" shape="2183.684061,5174.832877 2205.487615,5180.333964 2208.970855,5169.359341 2186.557078,5164.281857 2183.684061,5174.832877"/>
    <poly id="1050955229" type="amenity.parking" color="184,184,179" fill="1" layer="-1.00" shape="2987.620991,4675.849861 3045.388336,4696.016976 3040.180333,4712.533413 3045.397712,4714.577428 3050.695056,4697.681690 3048.015016,4691.366065 2983.521366,4668.909120 2968.275050,4722.946497 2972.262011,4728.735106 2973.990539,4723.858816 2987.620991,4675.849861"/>
    <poly id="1050955230" type="leisure.playground" color="207,245,201" fill="1" layer="-2.00" shape="2956.508333,4732.929152 2961.181849,4713.715267 2953.859441,4709.994892 2948.423376,4732.066626 2956.508333,4732.929152"/>
    <poly id="1056882858" type="landuse.industrial" color="209,209,204" fill="1" layer="-3.00" shape="2981.903484,5034.439376 2979.927314,5035.102540 2978.817562,5035.747502 2977.476796,5036.763647 2920.531298,5194.493700 3021.880034,5233.515352 3025.101004,5224.322778 3029.581849,5216.580162 3031.128913,5214.438503 3050.327550,5161.639174 3059.163598,5134.267583 3091.984315,5145.955927 3101.004622,5121.455647 3065.889824,5109.193784 3079.112346,5068.309166 2981.903484,5034.439376"/>
    <poly id="1056882860" type="landuse.residential" color="235,235,227" fill="1" layer="-3.00" shape="3009.404745,4834.945146 2991.958621,4889.517143 2992.923844,4893.359972 3017.697269,4902.131073 3037.742498,4844.118792 3009.404745,4834.945146"/>
    <poly id="1056882861" type="landuse.residential" color="235,235,227" fill="1" layer="-3.00" shape="2589.876117,4795.233782 2587.907731,4797.528705 2562.229605,4831.527474 2561.540213,4834.072996 2561.515548,4836.682228 2563.308509,4839.919242 2585.267877,4854.476412 2586.101774,4868.457095 2681.477855,4934.842252 2726.540494,4963.722240 2730.692474,4965.999384 2736.690134,4968.137796 2742.897642,4970.160789 2750.267210,4971.082556 2755.228860,4970.223330 2760.917264,4968.172126 2765.294363,4965.593462 2768.974257,4960.565067 2786.160136,4896.218094 2748.408294,4887.753952 2730.620609,4840.649603 2729.481760,4837.809530 2727.773219,4836.480061 2725.951201,4836.063254 2723.678280,4835.655932 2721.813018,4835.706273 2720.264901,4836.116271 2717.258276,4837.411722 2718.114678,4840.279938 2717.924841,4843.869520 2717.133920,4849.159084 2715.326145,4852.782705 2713.229121,4855.690853 2710.589051,4858.432813 2707.854968,4860.910330 2704.036426,4863.133142 2699.663633,4864.657160 2694.621794,4864.230399 2689.893911,4861.909882 2684.064254,4858.091729 2642.350968,4828.264471 2595.713918,4795.232992 2589.876117,4795.233782"/>
    <poly id="1056882862" type="building.apartments" color="255,230,230" fill="1" layer="-1.00" shape="2748.184903,4859.051744 2773.208378,4849.411603 2781.101114,4869.737856 2770.817902,4873.695121 2768.162087,4866.857324 2763.082019,4868.818018 2764.045169,4871.295461 2761.193726,4872.398917 2758.921395,4866.552138 2752.121528,4869.170661 2748.184903,4859.051744"/>
    <poly id="1056882863" type="landuse.commercial" color="209,209,204" fill="1" layer="-3.00" shape="2661.721454,4692.903212 2677.367519,4658.793961 2681.758509,4656.448089 2708.320302,4667.767204 2711.600779,4668.974794 2715.088136,4670.766380 2717.691354,4672.576567 2719.631785,4675.677299 2742.462478,4734.597914 2725.929375,4740.840261 2723.020097,4733.730285 2684.024495,4750.269568 2661.721454,4692.903212"/>
    <poly id="1056882864" type="landuse.residential" color="235,235,227" fill="1" layer="-3.00" shape="2758.110425,4748.511230 2796.283666,4848.915236 2797.552025,4850.764615 2798.472726,4851.644426 2799.538803,4851.866228 2800.851007,4851.594416 2801.952090,4849.695212 2824.967835,4766.853812 2822.296713,4760.549164 2761.945158,4743.690499 2760.963566,4744.121876 2759.836806,4744.800527 2758.784044,4745.633033 2757.989547,4746.548915 2757.762760,4747.541664 2758.110425,4748.511230"/>
    <poly id="1056882865" type="landuse.religious" color="194,194,130" fill="1" layer="-3.00" shape="2838.911979,4750.220158 2811.074078,4848.981662 2842.906664,4858.614014 2856.333376,4809.376864 2869.628710,4813.215823 2883.226647,4763.275779 2838.911979,4750.220158"/>
    <poly id="1056882866" type="landuse.residential" color="235,235,227" fill="1" layer="-3.00" shape="2571.139730,4666.990995 2551.708483,4683.884967 2544.479328,4690.064982 2539.510928,4695.231618 2535.253431,4698.873563 2531.654599,4702.290723 2529.332822,4705.026037 2526.203715,4710.586883 2524.284084,4716.877120 2524.273369,4721.828350 2524.377591,4726.777159 2525.111302,4730.536015 2527.147063,4734.800294 2530.150928,4738.833268 2550.040848,4753.811373 2601.700675,4680.035026 2571.139730,4666.990995"/>
    <poly id="1056882867" type="landuse.residential" color="235,235,227" fill="1" layer="-3.00" shape="2755.669846,4771.674613 2699.176824,4795.275709 2717.258276,4837.411722 2720.264901,4836.116271 2721.813018,4835.706273 2723.678280,4835.655932 2725.951201,4836.063254 2727.773219,4836.480061 2729.481760,4837.809530 2730.620609,4840.649603 2748.408294,4887.753952 2786.160136,4896.218094 2793.825452,4873.766313 2793.849438,4870.280129 2793.674951,4866.609405 2791.288123,4859.943559 2755.669846,4771.674613"/>
    <poly id="1056882872" type="man_made.bridge" color="255,230,230" fill="1" layer="-1.00" shape="2936.633574,4622.648794 2947.482088,4583.268100 2955.402979,4585.577193 2969.998784,4589.833043 2977.020847,4591.883515 2966.175707,4631.430607 2958.325127,4629.097827 2944.021382,4624.846965 2936.633574,4622.648794"/>
    <poly id="1056882874" type="amenity.parking" color="184,184,179" fill="1" layer="-1.00" shape="3175.067794,4704.839955 3182.634611,4707.145583 3183.537100,4705.050788 3206.881796,4713.586025 3204.970727,4719.043332 3177.715837,4709.635469 3164.317831,4748.114642 3160.450909,4746.774875 3175.067794,4704.839955"/>